FoamFile
{
    version     2.0;
    format      ascii;
    class       dictionary;
    location    "system";
    object      fvOptions;
}
// * * * * * * * * * * * * * * * * * * * * * * * * * * * * * * * * * * * * *

velocityDamping
{
    type            velocityDampingConstraint;
    active          true;
    selectionMode   all;
    UMax            50;
}
